<?xml version="1.0" encoding="UTF-8"?>

<!-- generated on 2025-10-16 14:02:41 by Eclipse SUMO netconvert Version 1.24.0
<netconvertConfiguration xmlns:xsi="http://www.w3.org/2001/XMLSchema-instance" xsi:noNamespaceSchemaLocation="http://sumo.dlr.de/xsd/netconvertConfiguration.xsd">

    <input>
        <type-files value="/usr/share/sumo/data/typemap/osmNetconvert.typ.xml"/>
        <osm-files value="mappa.osm"/>
    </input>

    <output>
        <output-file value="mappa.net.xml"/>
    </output>

    <projection>
        <proj.utm value="true"/>
    </projection>

    <edge_removal>
        <keep-edges.by-vclass value="passenger"/>
        <remove-edges.isolated value="true"/>
    </edge_removal>

</netconvertConfiguration>
-->

<net version="1.20" junctionCornerDetail="5" limitTurnSpeed="5.50" xmlns:xsi="http://www.w3.org/2001/XMLSchema-instance" xsi:noNamespaceSchemaLocation="http://sumo.dlr.de/xsd/net_file.xsd">

    <location netOffset="-684311.50,-4929606.46" convBoundary="0.00,0.00,2446.84,1372.38" origBoundary="11.255594,44.484368,11.358172,44.510951" projParameter="+proj=utm +zone=32 +ellps=WGS84 +datum=WGS84 +units=m +no_defs"/>

    <type id="highway.living_street" priority="2" numLanes="1" speed="2.78" disallow="tram rail_urban rail rail_electric rail_fast ship container cable_car subway aircraft wheelchair scooter drone" oneway="0"/>
    <type id="highway.primary" priority="12" numLanes="2" speed="27.78" disallow="tram rail_urban rail rail_electric rail_fast ship container cable_car subway aircraft wheelchair scooter drone" oneway="0"/>
    <type id="highway.primary_link" priority="7" numLanes="1" speed="22.22" disallow="tram rail_urban rail rail_electric rail_fast ship container cable_car subway aircraft wheelchair scooter drone" oneway="0"/>
    <type id="highway.residential" priority="3" numLanes="1" speed="13.89" disallow="tram rail_urban rail rail_electric rail_fast ship container cable_car subway aircraft wheelchair scooter drone" oneway="0"/>
    <type id="highway.tertiary" priority="10" numLanes="1" speed="22.22" disallow="tram rail_urban rail rail_electric rail_fast ship container cable_car subway aircraft wheelchair scooter drone" oneway="0"/>

    <edge id=":10202796567_0" function="internal">
        <lane id=":10202796567_0_0" index="0" disallow="tram rail_urban rail rail_electric rail_fast ship container cable_car subway aircraft wheelchair scooter drone" speed="8.33" length="0.30" shape="1641.38,519.98 1641.29,519.70"/>
    </edge>
    <edge id=":10202796568_0" function="internal">
        <lane id=":10202796568_0_0" index="0" disallow="tram rail_urban rail rail_electric rail_fast ship container cable_car subway aircraft wheelchair scooter drone" speed="8.33" length="0.30" shape="1656.76,515.36 1656.84,515.65"/>
        <lane id=":10202796568_0_1" index="1" disallow="tram rail_urban rail rail_electric rail_fast ship container cable_car subway aircraft wheelchair scooter drone" speed="8.33" length="0.30" shape="1653.68,516.24 1653.76,516.53"/>
    </edge>
    <edge id=":10202796571_0" function="internal">
        <lane id=":10202796571_0_0" index="0" disallow="tram rail_urban rail rail_electric rail_fast ship container cable_car subway aircraft wheelchair scooter drone" speed="8.33" length="3.85" shape="1659.96,546.26 1660.31,547.34 1660.65,548.05 1661.15,548.66 1661.99,549.42"/>
    </edge>
    <edge id=":10202796571_1" function="internal">
        <lane id=":10202796571_1_0" index="0" disallow="tram rail_urban rail rail_electric rail_fast ship container cable_car subway aircraft wheelchair scooter drone" speed="3.65" length="4.67" shape="1656.89,547.19 1656.48,548.57 1655.83,549.18 1654.95,549.03 1653.83,548.12"/>
    </edge>
    <edge id=":10202796571_2" function="internal">
        <lane id=":10202796571_2_0" index="0" disallow="tram rail_urban rail rail_electric rail_fast ship container cable_car subway aircraft wheelchair scooter drone" speed="8.33" length="4.79" shape="1648.23,544.15 1650.77,549.04"/>
        <lane id=":10202796571_2_1" index="1" disallow="tram rail_urban rail rail_electric rail_fast ship container cable_car subway aircraft wheelchair scooter drone" speed="8.33" length="4.79" shape="1651.33,544.92 1653.83,548.12"/>
    </edge>
    <edge id=":10202796573_0" function="internal">
        <lane id=":10202796573_0_0" index="0" disallow="tram rail_urban rail rail_electric rail_fast ship container cable_car subway aircraft wheelchair scooter drone" speed="8.33" length="11.18" shape="1647.64,538.70 1647.35,535.37 1648.02,532.81 1648.38,530.49 1647.19,527.90"/>
    </edge>
    <edge id=":10202796573_1" function="internal">
        <lane id=":10202796573_1_0" index="0" disallow="tram rail_urban rail rail_electric rail_fast ship container cable_car subway aircraft wheelchair scooter drone" speed="3.65" length="4.67" shape="1650.70,537.77 1651.12,536.39 1651.77,535.78 1652.65,535.93 1653.76,536.84"/>
    </edge>
    <edge id=":10202796573_2" function="internal">
        <lane id=":10202796573_2_0" index="0" disallow="tram rail_urban rail rail_electric rail_fast ship container cable_car subway aircraft wheelchair scooter drone" speed="8.33" length="10.07" shape="1656.29,526.71 1655.91,529.45 1655.81,531.37 1656.08,533.26 1656.82,535.91"/>
        <lane id=":10202796573_2_1" index="1" disallow="tram rail_urban rail rail_electric rail_fast ship container cable_car subway aircraft wheelchair scooter drone" speed="8.33" length="10.07" shape="1653.13,526.25 1652.69,529.40 1652.58,531.61 1652.90,533.78 1653.76,536.84"/>
    </edge>
    <edge id=":10229176542_0" function="internal">
        <lane id=":10229176542_0_0" index="0" disallow="tram rail_urban rail rail_electric rail_fast ship container cable_car subway aircraft wheelchair scooter drone" speed="8.33" length="0.30" shape="2043.75,1000.34 2043.70,1000.04"/>
    </edge>
    <edge id=":10229176543_0" function="internal">
        <lane id=":10229176543_0_0" index="0" disallow="tram rail_urban rail rail_electric rail_fast ship container cable_car subway aircraft wheelchair scooter drone" speed="8.33" length="0.29" shape="2059.46,1033.49 2059.13,1033.55"/>
        <lane id=":10229176543_0_1" index="1" disallow="tram rail_urban rail rail_electric rail_fast ship container cable_car subway aircraft wheelchair scooter drone" speed="8.33" length="0.29" shape="2058.87,1030.34 2058.58,1030.40"/>
        <lane id=":10229176543_0_2" index="2" disallow="tram rail_urban rail rail_electric rail_fast ship container cable_car subway aircraft wheelchair scooter drone" speed="8.33" length="0.29" shape="2058.28,1027.20 2058.04,1027.24"/>
    </edge>
    <edge id=":10229176544_0" function="internal">
        <lane id=":10229176544_0_0" index="0" disallow="tram rail_urban rail rail_electric rail_fast ship container cable_car subway aircraft wheelchair scooter drone" speed="8.33" length="0.29" shape="2028.05,1019.92 2028.38,1019.85"/>
        <lane id=":10229176544_0_1" index="1" disallow="tram rail_urban rail rail_electric rail_fast ship container cable_car subway aircraft wheelchair scooter drone" speed="8.33" length="0.29" shape="2028.76,1023.04 2029.05,1022.98"/>
        <lane id=":10229176544_0_2" index="2" disallow="tram rail_urban rail rail_electric rail_fast ship container cable_car subway aircraft wheelchair scooter drone" speed="8.33" length="0.29" shape="2029.47,1026.16 2029.72,1026.11"/>
    </edge>
    <edge id=":10229176548_0" function="internal">
        <lane id=":10229176548_0_0" index="0" disallow="tram rail_urban rail rail_electric rail_fast ship container cable_car subway aircraft wheelchair scooter drone" speed="8.33" length="0.30" shape="2033.11,951.12 2033.05,950.83"/>
    </edge>
    <edge id=":10716480583_0" function="internal">
        <lane id=":10716480583_0_0" index="0" disallow="tram rail_urban rail rail_electric rail_fast ship container cable_car subway aircraft wheelchair scooter drone" speed="8.33" length="0.32" shape="2144.59,1084.79 2144.54,1084.47"/>
    </edge>
    <edge id=":10716480583_1" function="internal">
        <lane id=":10716480583_1_0" index="0" disallow="tram rail_urban rail rail_electric rail_fast ship container cable_car subway aircraft wheelchair scooter drone" speed="8.33" length="0.29" shape="2150.84,1083.38 2150.89,1083.65"/>
        <lane id=":10716480583_1_1" index="1" disallow="tram rail_urban rail rail_electric rail_fast ship container cable_car subway aircraft wheelchair scooter drone" speed="8.33" length="0.29" shape="2147.69,1083.93 2147.74,1084.22"/>
    </edge>
    <edge id=":10716480588_0" function="internal">
        <lane id=":10716480588_0_0" index="0" disallow="tram rail_urban rail rail_electric rail_fast ship container cable_car subway aircraft wheelchair scooter drone" speed="8.33" length="0.25" shape="2167.20,1210.04 2167.16,1209.80"/>
    </edge>
    <edge id=":10716480588_1" function="internal">
        <lane id=":10716480588_1_0" index="0" disallow="tram rail_urban rail rail_electric rail_fast ship container cable_car subway aircraft wheelchair scooter drone" speed="8.33" length="0.31" shape="2173.45,1208.66 2173.51,1208.99"/>
        <lane id=":10716480588_1_1" index="1" disallow="tram rail_urban rail rail_electric rail_fast ship container cable_car subway aircraft wheelchair scooter drone" speed="8.33" length="0.31" shape="2170.30,1209.23 2170.35,1209.52"/>
    </edge>
    <edge id=":10762190844_0" function="internal">
        <lane id=":10762190844_0_0" index="0" disallow="tram rail_urban rail rail_electric rail_fast ship container cable_car subway aircraft wheelchair scooter drone" speed="8.33" length="0.31" shape="1761.78,920.99 1761.69,920.69"/>
        <lane id=":10762190844_0_1" index="1" disallow="tram rail_urban rail rail_electric rail_fast ship container cable_car subway aircraft wheelchair scooter drone" speed="8.33" length="0.31" shape="1764.85,920.08 1764.76,919.79"/>
    </edge>
    <edge id=":10762190844_2" function="internal">
        <lane id=":10762190844_2_0" index="0" disallow="tram rail_urban rail rail_electric rail_fast ship container cable_car subway aircraft wheelchair scooter drone" speed="8.33" length="0.29" shape="1770.90,917.97 1770.98,918.25"/>
        <lane id=":10762190844_2_1" index="1" disallow="tram rail_urban rail rail_electric rail_fast ship container cable_car subway aircraft wheelchair scooter drone" speed="8.33" length="0.29" shape="1767.83,918.88 1767.92,919.16"/>
    </edge>
    <edge id=":10775794218_0" function="internal">
        <lane id=":10775794218_0_0" index="0" disallow="tram rail_urban rail rail_electric rail_fast ship container cable_car subway aircraft wheelchair scooter drone" speed="8.33" length="0.30" shape="276.76,382.90 276.69,382.60"/>
    </edge>
    <edge id=":10845764487_0" function="internal">
        <lane id=":10845764487_0_0" index="0" disallow="tram rail_urban rail rail_electric rail_fast ship container cable_car subway aircraft wheelchair scooter drone" speed="8.33" length="0.30" shape="2041.69,354.50 2041.73,354.80"/>
    </edge>
    <edge id=":10874161420_0" function="internal">
        <lane id=":10874161420_0_0" index="0" disallow="tram rail_urban rail rail_electric rail_fast ship container cable_car subway aircraft wheelchair scooter drone" speed="13.89" length="0.30" shape="1093.18,691.83 1092.92,691.64"/>
        <lane id=":10874161420_0_1" index="1" disallow="tram rail_urban rail rail_electric rail_fast ship container cable_car subway aircraft wheelchair scooter drone" speed="13.89" length="0.30" shape="1095.07,689.25 1094.83,689.07"/>
        <lane id=":10874161420_0_2" index="2" disallow="tram rail_urban rail rail_electric rail_fast ship container cable_car subway aircraft wheelchair scooter drone" speed="13.89" length="0.30" shape="1096.96,686.67 1096.74,686.50"/>
    </edge>
    <edge id=":10874161421_0" function="internal">
        <lane id=":10874161421_0_0" index="0" disallow="tram rail_urban rail rail_electric rail_fast ship container cable_car subway aircraft wheelchair scooter drone" speed="13.89" length="0.26" shape="1107.09,673.44 1107.16,673.49"/>
        <lane id=":10874161421_0_1" index="1" disallow="tram rail_urban rail rail_electric rail_fast ship container cable_car subway aircraft wheelchair scooter drone" speed="13.89" length="0.26" shape="1105.15,675.98 1105.36,676.13"/>
        <lane id=":10874161421_0_2" index="2" disallow="tram rail_urban rail rail_electric rail_fast ship container cable_car subway aircraft wheelchair scooter drone" speed="13.89" length="0.26" shape="1103.21,678.52 1103.57,678.78"/>
    </edge>
    <edge id=":10874161449_0" function="internal">
        <lane id=":10874161449_0_0" index="0" disallow="tram rail_urban rail rail_electric rail_fast ship container cable_car subway aircraft wheelchair scooter drone" speed="13.89" length="0.30" shape="1269.41,793.71 1269.65,793.90"/>
        <lane id=":10874161449_0_1" index="1" disallow="tram rail_urban rail rail_electric rail_fast ship container cable_car subway aircraft wheelchair scooter drone" speed="13.89" length="0.30" shape="1267.46,796.24 1267.69,796.43"/>
        <lane id=":10874161449_0_2" index="2" disallow="tram rail_urban rail rail_electric rail_fast ship container cable_car subway aircraft wheelchair scooter drone" speed="13.89" length="0.30" shape="1265.50,798.77 1265.73,798.96"/>
    </edge>
    <edge id=":10874161452_0" function="internal">
        <lane id=":10874161452_0_0" index="0" disallow="tram rail_urban rail rail_electric rail_fast ship container cable_car subway aircraft wheelchair scooter drone" speed="8.33" length="0.30" shape="1244.01,823.89 1243.71,823.95"/>
    </edge>
    <edge id=":10874161452_1" function="internal">
        <lane id=":10874161452_1_0" index="0" disallow="tram rail_urban rail rail_electric rail_fast ship container cable_car subway aircraft wheelchair scooter drone" speed="8.33" length="0.30" shape="1243.07,820.81 1243.36,820.75"/>
    </edge>
    <edge id=":10874161453_0" function="internal">
        <lane id=":10874161453_0_0" index="0" disallow="tram rail_urban rail rail_electric rail_fast ship container cable_car subway aircraft wheelchair scooter drone" speed="13.89" length="0.10" shape="1253.02,810.72 1253.02,810.72"/>
        <lane id=":10874161453_0_1" index="1" disallow="tram rail_urban rail rail_electric rail_fast ship container cable_car subway aircraft wheelchair scooter drone" speed="13.89" length="0.10" shape="1254.94,808.17 1254.94,808.17"/>
        <lane id=":10874161453_0_2" index="2" disallow="tram rail_urban rail rail_electric rail_fast ship container cable_car subway aircraft wheelchair scooter drone" speed="13.89" length="0.10" shape="1256.87,805.62 1256.87,805.62"/>
    </edge>
    <edge id=":10879440234_0" function="internal">
        <lane id=":10879440234_0_0" index="0" disallow="tram rail_urban rail rail_electric rail_fast ship container cable_car subway aircraft wheelchair scooter drone" speed="8.33" length="0.28" shape="935.77,603.89 936.04,603.85"/>
    </edge>
    <edge id=":10879440234_1" function="internal">
        <lane id=":10879440234_1_0" index="0" disallow="tram rail_urban rail rail_electric rail_fast ship container cable_car subway aircraft wheelchair scooter drone" speed="8.33" length="0.41" shape="935.48,600.70 935.08,600.77"/>
    </edge>
    <edge id=":10879440238_0" function="internal">
        <lane id=":10879440238_0_0" index="0" disallow="tram rail_urban rail rail_electric rail_fast ship container cable_car subway aircraft wheelchair scooter drone" speed="8.33" length="0.28" shape="929.68,615.75 929.63,615.48"/>
    </edge>
    <edge id=":10879440238_1" function="internal">
        <lane id=":10879440238_1_0" index="0" disallow="tram rail_urban rail rail_electric rail_fast ship container cable_car subway aircraft wheelchair scooter drone" speed="8.33" length="0.31" shape="932.76,614.81 932.82,615.11"/>
    </edge>
    <edge id=":10879440242_0" function="internal">
        <lane id=":10879440242_0_0" index="0" disallow="tram rail_urban rail rail_electric rail_fast ship container cable_car subway aircraft wheelchair scooter drone" speed="8.33" length="2.10" shape="958.18,599.02 960.22,598.52"/>
    </edge>
    <edge id=":10879440242_1" function="internal">
        <lane id=":10879440242_1_0" index="0" disallow="tram rail_urban rail rail_electric rail_fast ship container cable_car subway aircraft wheelchair scooter drone" speed="8.33" length="2.16" shape="959.53,595.40 957.43,595.91"/>
    </edge>
    <edge id=":10879440248_0" function="internal">
        <lane id=":10879440248_0_0" index="0" disallow="tram rail_urban rail rail_electric rail_fast ship container cable_car subway aircraft wheelchair scooter drone" speed="8.33" length="0.12" shape="941.05,542.21 941.16,542.04"/>
        <lane id=":10879440248_0_1" index="1" disallow="tram rail_urban rail rail_electric rail_fast ship container cable_car subway aircraft wheelchair scooter drone" speed="8.33" length="0.12" shape="938.50,540.26 938.57,540.16"/>
        <lane id=":10879440248_0_2" index="2" disallow="tram rail_urban rail rail_electric rail_fast ship container cable_car subway aircraft wheelchair scooter drone" speed="8.33" length="0.12" shape="935.96,538.32 935.98,538.29"/>
    </edge>
    <edge id=":10879440262_0" function="internal">
        <lane id=":10879440262_0_0" index="0" disallow="tram rail_urban rail rail_electric rail_fast ship container cable_car subway aircraft wheelchair scooter drone" speed="13.89" length="0.30" shape="705.05,372.67 705.29,372.85"/>
        <lane id=":10879440262_0_1" index="1" disallow="tram rail_urban rail rail_electric rail_fast ship container cable_car subway aircraft wheelchair scooter drone" speed="13.89" length="0.30" shape="703.17,375.27 703.42,375.44"/>
        <lane id=":10879440262_0_2" index="2" disallow="tram rail_urban rail rail_electric rail_fast ship container cable_car subway aircraft wheelchair scooter drone" speed="13.89" length="0.30" shape="701.30,377.86 701.54,378.04"/>
    </edge>
    <edge id=":10879545198_0" function="internal">
        <lane id=":10879545198_0_0" index="0" disallow="tram rail_urban rail rail_electric rail_fast ship container cable_car subway aircraft wheelchair scooter drone" speed="8.33" length="0.10" shape="2028.57,473.55 2028.66,473.53"/>
    </edge>
    <edge id=":10879545198_1" function="internal">
        <lane id=":10879545198_1_0" index="0" disallow="tram rail_urban rail rail_electric rail_fast ship container cable_car subway aircraft wheelchair scooter drone" speed="8.33" length="0.10" shape="2027.88,470.42 2027.97,470.40"/>
    </edge>
    <edge id=":10886285965_0" function="internal">
        <lane id=":10886285965_0_0" index="0" disallow="tram rail_urban rail rail_electric rail_fast ship container cable_car subway aircraft wheelchair scooter drone" speed="8.33" length="0.24" shape="2010.18,930.32 2010.11,930.31 2010.06,930.31 2010.01,930.32 2009.94,930.32"/>
    </edge>
    <edge id=":10886285966_0" function="internal">
        <lane id=":10886285966_0_0" index="0" disallow="tram rail_urban rail rail_electric rail_fast ship container cable_car subway aircraft wheelchair scooter drone" speed="8.33" length="0.28" shape="2024.19,937.70 2023.96,937.55"/>
    </edge>
    <edge id=":10901430832_0" function="internal">
        <lane id=":10901430832_0_0" index="0" disallow="tram rail_urban rail rail_electric rail_fast ship container cable_car subway aircraft wheelchair scooter drone" speed="6.09" length="10.51" shape="2137.55,990.99 2137.44,994.02 2138.43,995.88 2140.50,996.57 2143.66,996.08"/>
    </edge>
    <edge id=":10901430832_1" function="internal">
        <lane id=":10901430832_1_0" index="0" disallow="pedestrian tram rail_urban rail rail_electric rail_fast ship container cable_car subway aircraft wheelchair scooter drone" speed="8.33" length="18.07" shape="2137.55,990.99 2137.63,994.58 2138.66,998.35 2139.82,1002.88 2140.31,1008.75"/>
    </edge>
    <edge id=":10901430832_2" function="internal">
        <lane id=":10901430832_2_0" index="0" disallow="tram rail_urban rail rail_electric rail_fast ship container cable_car subway aircraft wheelchair scooter drone" speed="8.31" length="16.30" shape="2132.93,991.23 2134.48,995.72 2136.93,998.54 2140.27,999.68 2144.52,999.16"/>
    </edge>
    <edge id=":10901430832_3" function="internal">
        <lane id=":10901430832_3_0" index="0" disallow="pedestrian tram rail_urban rail rail_electric rail_fast ship container cable_car subway aircraft wheelchair scooter drone" speed="8.33" length="18.08" shape="2132.93,991.23 2134.03,994.76 2135.46,998.43 2136.66,1002.87 2137.11,1008.69"/>
    </edge>
    <edge id=":10901430832_4" function="internal">
        <lane id=":10901430832_4_0" index="0" disallow="tram rail_urban rail rail_electric rail_fast ship container cable_car subway aircraft wheelchair scooter drone" speed="11.11" length="16.95" shape="2127.85,1002.05 2144.52,999.16"/>
        <lane id=":10901430832_4_1" index="1" disallow="tram rail_urban rail rail_electric rail_fast ship container cable_car subway aircraft wheelchair scooter drone" speed="11.11" length="16.95" shape="2128.66,1005.15 2145.39,1002.24"/>
    </edge>
    <edge id=":10901430832_6" function="internal">
        <lane id=":10901430832_6_0" index="0" disallow="pedestrian tram rail_urban rail rail_electric rail_fast ship container cable_car subway aircraft wheelchair scooter drone" speed="6.53" length="10.99" shape="2128.66,1005.15 2132.39,1004.54 2135.05,1004.92 2136.62,1006.31 2137.11,1008.69"/>
    </edge>
    <edge id=":10901430832_7" function="internal">
        <lane id=":10901430832_7_0" index="0" disallow="pedestrian tram rail_urban rail rail_electric rail_fast ship container cable_car subway aircraft wheelchair scooter drone" speed="10.00" length="1.92" shape="2130.71,1008.58 2131.33,1006.76"/>
        <lane id=":10901430832_7_1" index="1" disallow="pedestrian tram rail_urban rail rail_electric rail_fast ship container cable_car subway aircraft wheelchair scooter drone" speed="8.85" length="1.34" shape="2133.91,1008.63 2134.48,1007.43"/>
    </edge>
    <edge id=":10901430832_9" function="internal">
        <lane id=":10901430832_9_0" index="0" disallow="pedestrian tram rail_urban rail rail_electric rail_fast ship container cable_car subway aircraft wheelchair scooter drone" speed="3.65" length="1.23" shape="2133.91,1008.63 2134.61,1007.62"/>
    </edge>
    <edge id=":10901430832_10" function="internal">
        <lane id=":10901430832_10_0" index="0" disallow="pedestrian tram rail_urban rail rail_electric rail_fast ship container cable_car subway aircraft wheelchair scooter drone" speed="10.00" length="15.66" shape="2131.33,1006.76 2131.61,1005.94 2134.21,1003.50 2138.52,1001.24 2144.52,999.16"/>
        <lane id=":10901430832_10_1" index="0" disallow="pedestrian tram rail_urban rail rail_electric rail_fast ship container cable_car subway aircraft wheelchair scooter drone" speed="8.85" length="12.26" shape="2134.48,1007.43 2134.65,1007.07 2136.80,1005.49 2140.39,1003.88 2145.39,1002.24"/>
    </edge>
    <edge id=":10901430832_11" function="internal">
        <lane id=":10901430832_11_0" index="0" disallow="pedestrian tram rail_urban rail rail_electric rail_fast ship container cable_car subway aircraft wheelchair scooter drone" speed="3.65" length="3.44" shape="2134.61,1007.62 2134.73,1007.45 2135.54,1007.06 2136.33,1007.48 2137.11,1008.69"/>
    </edge>
    <edge id=":10901509370_0" function="internal">
        <lane id=":10901509370_0_0" index="0" disallow="tram rail_urban rail rail_electric rail_fast ship container cable_car subway aircraft wheelchair scooter drone" speed="8.33" length="0.30" shape="240.20,446.13 240.47,446.01"/>
    </edge>
    <edge id=":10901509375_0" function="internal">
        <lane id=":10901509375_0_0" index="0" disallow="tram rail_urban rail rail_electric rail_fast ship container cable_car subway aircraft wheelchair scooter drone" speed="8.33" length="0.24" shape="263.26,435.64 263.48,435.54"/>
    </edge>
    <edge id=":10901509413_0" function="internal">
        <lane id=":10901509413_0_0" index="0" disallow="tram rail_urban rail rail_electric rail_fast ship container cable_car subway aircraft wheelchair scooter drone" speed="8.33" length="0.30" shape="216.33,457.17 216.60,457.05"/>
    </edge>
    <edge id=":10908697980_0" function="internal">
        <lane id=":10908697980_0_0" index="0" disallow="tram rail_urban rail rail_electric rail_fast ship container cable_car subway aircraft wheelchair scooter drone" speed="8.33" length="0.10" shape="2180.75,441.14 2180.75,441.14"/>
    </edge>
    <edge id=":10909387083_0" function="internal">
        <lane id=":10909387083_0_0" index="0" disallow="tram rail_urban rail rail_electric rail_fast ship container cable_car subway aircraft wheelchair scooter drone" speed="2.78" length="0.59" shape="2229.86,321.72 2229.32,321.95"/>
    </edge>
    <edge id=":10911492513_0" function="internal">
        <lane id=":10911492513_0_0" index="0" disallow="tram rail_urban rail rail_electric rail_fast ship container cable_car subway aircraft wheelchair scooter drone" speed="8.33" length="0.31" shape="1979.33,486.07 1979.03,486.14"/>
    </edge>
    <edge id=":10911492513_1" function="internal">
        <lane id=":10911492513_1_0" index="0" disallow="tram rail_urban rail rail_electric rail_fast ship container cable_car subway aircraft wheelchair scooter drone" speed="8.33" length="0.28" shape="1978.27,483.03 1978.54,482.97"/>
    </edge>
    <edge id=":10911492517_0" function="internal">
        <lane id=":10911492517_0_0" index="0" disallow="tram rail_urban rail rail_electric rail_fast ship container cable_car subway aircraft wheelchair scooter drone" speed="8.33" length="0.28" shape="1941.99,469.97 1942.08,470.23"/>
    </edge>
    <edge id=":10917839240_0" function="internal">
        <lane id=":10917839240_0_0" index="0" disallow="tram rail_urban rail rail_electric rail_fast ship container cable_car subway aircraft wheelchair scooter drone" speed="8.33" length="0.30" shape="986.20,219.50 986.47,219.38"/>
    </edge>
    <edge id=":10917839242_0" function="internal">
        <lane id=":10917839242_0_0" index="0" disallow="tram rail_urban rail rail_electric rail_fast ship container cable_car subway aircraft wheelchair scooter drone" speed="8.33" length="0.10" shape="1011.93,201.08 1011.93,201.08"/>
    </edge>
    <edge id=":10969025094_0" function="internal">
        <lane id=":10969025094_0_0" index="0" disallow="tram rail_urban rail rail_electric rail_fast ship container cable_car subway aircraft wheelchair scooter drone" speed="8.33" length="0.15" shape="245.76,242.75 245.79,242.90"/>
    </edge>
    <edge id=":10969027735_0" function="internal">
        <lane id=":10969027735_0_0" index="0" disallow="tram rail_urban rail rail_electric rail_fast ship container cable_car subway aircraft wheelchair scooter drone" speed="8.33" length="0.30" shape="226.06,155.20 225.98,154.91"/>
    </edge>
    <edge id=":10979121890_0" function="internal">
        <lane id=":10979121890_0_0" index="0" disallow="tram rail_urban rail rail_electric rail_fast ship container cable_car subway aircraft wheelchair scooter drone" speed="8.33" length="10.18" shape="1395.37,610.25 1392.44,610.94 1390.46,611.63 1388.70,612.75 1386.44,614.71"/>
    </edge>
    <edge id=":10979121890_1" function="internal">
        <lane id=":10979121890_1_0" index="0" disallow="tram rail_urban rail rail_electric rail_fast ship container cable_car subway aircraft wheelchair scooter drone" speed="8.19" length="11.46" shape="1395.37,610.25 1392.35,610.54 1389.71,609.94 1387.47,608.44 1385.62,606.05"/>
    </edge>
    <edge id=":10979121890_2" function="internal">
        <lane id=":10979121890_2_0" index="0" disallow="tram rail_urban rail rail_electric rail_fast ship container cable_car subway aircraft wheelchair scooter drone" speed="6.53" length="7.62" shape="1383.80,612.80 1385.32,611.08 1386.13,609.39 1386.23,607.71 1385.62,606.05"/>
    </edge>
    <edge id=":10979121890_3" function="internal">
        <lane id=":10979121890_3_0" index="0" disallow="tram rail_urban rail rail_electric rail_fast ship container cable_car subway aircraft wheelchair scooter drone" speed="3.68" length="4.77" shape="1383.80,612.80 1385.18,612.28 1386.08,612.43 1386.50,613.24 1386.44,614.71"/>
    </edge>
    <edge id=":10979127624_0" function="internal">
        <lane id=":10979127624_0_0" index="0" disallow="tram rail_urban rail rail_electric rail_fast ship container cable_car subway aircraft wheelchair scooter drone" speed="3.65" length="4.67" shape="1365.49,632.51 1364.05,632.67 1363.23,632.31 1363.02,631.44 1363.43,630.06"/>
    </edge>
    <edge id=":10979127687_0" function="internal">
        <lane id=":10979127687_0_0" index="0" disallow="tram rail_urban rail rail_electric rail_fast ship container cable_car subway aircraft wheelchair scooter drone" speed="8.33" length="0.31" shape="1376.98,583.49 1376.89,583.20"/>
    </edge>
    <edge id=":10979127687_1" function="internal">
        <lane id=":10979127687_1_0" index="0" disallow="tram rail_urban rail rail_electric rail_fast ship container cable_car subway aircraft wheelchair scooter drone" speed="8.33" length="0.29" shape="1379.97,582.32 1380.05,582.60"/>
    </edge>
    <edge id=":10979255305_0" function="internal">
        <lane id=":10979255305_0_0" index="0" disallow="tram rail_urban rail rail_electric rail_fast ship container cable_car subway aircraft wheelchair scooter drone" speed="13.89" length="0.30" shape="697.95,214.70 698.02,214.42"/>
        <lane id=":10979255305_0_1" index="1" disallow="tram rail_urban rail rail_electric rail_fast ship container cable_car subway aircraft wheelchair scooter drone" speed="13.89" length="0.30" shape="701.04,215.51 701.12,215.22"/>