<?xml version="1.0" encoding="UTF-8"?>

<!-- generated on 2025-10-16 16:08:42.836450 by randomTrips.py UNKNOWN
<configuration>
    <net-file value="mappa.net.xml"/>
    <route-file value="mappa.rou.xml"/>
    <fringe-factor value="10"/>
    <end value="1000.0"/>
    <period value="5.0"/>
</configuration>
-->

<!-- generated on 2025-10-16 16:08:42 by Eclipse SUMO duarouter Version 1.24.0
<duarouterConfiguration xmlns:xsi="http://www.w3.org/2001/XMLSchema-instance" xsi:noNamespaceSchemaLocation="http://sumo.dlr.de/xsd/duarouterConfiguration.xsd">

    <input>
        <net-file value="mappa.net.xml"/>
        <route-files value="trips.trips.xml"/>
    </input>

    <output>
        <output-file value="mappa.rou.xml"/>
        <alternatives-output value="NUL"/>
    </output>

    <time>
        <begin value="0"/>
        <end value="1000.0"/>
    </time>

    <report>
        <no-warnings value="true"/>
        <ignore-errors value="true"/>
        <no-step-log value="true"/>
    </report>

</duarouterConfiguration>
-->

<routes xmlns:xsi="http://www.w3.org/2001/XMLSchema-instance" xsi:noNamespaceSchemaLocation="http://sumo.dlr.de/xsd/routes_file.xsd">
    <vehicle id="0" depart="0.00">
        <route edges="281699203#1 33831422#2 33831422#3 33831422#4 33831422#5 1304023938 1414576511#0 1414576511#1 80655891#0 80655891#1 80655891#2 451606987 39216791#0 39216791#1 39216791#2 39216791#3 39216791#4 39216791#5 39216791#6 479678291 151737991#0 151737991#1 151737991#2 479678295 479678293 151732541#0 151732541#1 1379361918 151737998 -1379361907"/>
    </vehicle>
    <vehicle id="1" depart="5.00">
        <route edges="1300985702 1300985701 -1300985701 -1300985702 -1118443338#1 -1118443338#0 -34547555#3 -34547555#2 -34547555#1 -34547555#0 323825888#0 323825888#1 323825888#2 323825888#3 323825888#4 151824736#0 151824736#1 323224337 323225957#0 323225957#1 43469290#0 43469290#1 43469291#0 43469291#1 43469291#2 131881836 293298723#0 293298723#1 205519279#0 205519279#1 1345161408 323222450 455336990#0 455336990#1 455336990#2 455336990#3 23184327#0 23184327#1 23184327#2 -231110042 23288767#2 1222058917#0 1222058917#1 37931738#0 37931738#1 1222058915 1222058913 1222058914"/>
    </vehicle>
    <vehicle id="2" depart="10.00">
        <route edges="34547212#0 34547212#1 34547212#2 34547212#3 34547212#4 34547212#5 23289049#0 23289049#1 23289049#2 23289049#3 448811304#0 448811304#1 457459207 479678374 448811306#0 448811306#1 448811306#2 479678367 453604582 150018090#0 150018090#1 479678277 479678275 479678290 150018081#0 150018081#1 23296623#0 23296623#1 23296623#2 1204509157#0 1204509157#1 1204509157#2 323825891#0 323825891#1 323825891#2 323825891#3 131881833#0 131881833#1 132006073#0 132006073#1 132006073#2 132006073#3 132006073#4 479678295 479678293 479678294#0 479678294#1 479678294#2 479678292#0 479678292#1 479678291 33831415"/>
    </vehicle>
    <vehicle id="3" depart="15.00">
        <route edges="529650602#0 529650602#1 -151732528#3 151732528#3 529650601#0 529650601#1 479678155#1 479678157#0 479678157#1 151732524#0 151732524#1 151732524#2 151732524#3 1185305650#0 1185305650#1 454364247 27032657 814584377#0 814584377#1 814584377#2 814584377#3 826561109#0 826561109#1 826561109#2 1302766176#0 1302766176#1 1302766176#2 23289817#0 23289817#1 23289817#2 -257707685#1 -257707685#0"/>
    </vehicle>
    <vehicle id="4" depart="20.00">
        <route edges="151824729#2 1215972436#0 1215972436#1 231109701#0 231109701#1 352056866#0 352056866#1 151824735#0 151824735#1 151824735#2 1394957516 151824730#0 151824730#1 151824730#2 132006073#0 132006073#1 132006073#2 132006073#3 132006073#4 479678295 479678293 151732541#0 151732541#1 1379361918 151737998 -1379361907 34547753#0 34547753#1 34547753#2 34547753#3 1379361938 34549675#0 34549675#1 -34549675#1 -34549675#0 -1379361938"/>
    </vehicle>
    <vehicle id="5" depart="25.00">
        <route edges="-894393267#0 -281697324#1 -281697324#0 33831422#0 33831422#1 33831422#2 33831422#3 33831422#4 33831422#5 1304023938 1414576511#0 1414576511#1 80655891#0 80655891#1 80655891#2 451606987 33831417#0 33831417#1 33831417#2 1272575217#0 1272575217#1 1272575218 1272575219 281681811#0 281681811#1 281681811#2 281681811#3 281681811#4 281681811#5 239881751#0 239881751#1 239881751#2 151824716#0 151824716#1 151824728#0 151824728#1 151824728#2 151824728#3 151824728#4 151824728#5 34524852#0 34524852#1 1303980968 1303980967#0 1303980967#1 1303980967#2 151772099 23288957#0 23288957#1 23288957#2 23288957#3 23288957#4"/>
    </vehicle>
    <vehicle id="6" depart="30.00">
        <route edges="-1300985701 -1300985702 -1118443338#1 -1118443338#0 -34547555#3 -34547555#2 -34547555#1 -34547555#0 323825888#0 323825888#1 323825888#2 323825888#3 323825888#4 151824736#0 151824736#1 323224337 323225957#0 323225957#1 43469290#0 43469290#1 43469291#0 43469291#1 43469291#2 131881836 293298723#0 293298723#1 205519279#0 205519279#1 1345161408 323222450 455336990#0 455336990#1 455336990#2 455336990#3 1418288313 23184329#0 23184329#1 23184329#2 1151980389 25695583 1151980384#0 1151980384#1"/>
    </vehicle>
    <vehicle id="7" depart="35.00">
        <route edges="30887232#1 30887232#2 34547852#0 34547852#1 39216791#0 39216791#1 39216791#2 39216791#3 39216791#4 39216791#5 39216791#6 479678291 151737991#0 151737991#1 151737991#2 453786057#0 453786057#1 453786057#2 453786057#3 453786057#4 23296607#0 23296607#1 151732528#0 151732528#1 151732528#2 23296603#0"/>
    </vehicle>
    <vehicle id="8" depart="40.00">
        <route edges="-943553380#0 943553380#0 943553380#1 23185864#0 23185864#1 23185864#2 23185864#3 23185864#4 23185864#5 23185864#6 448811304#0 448811304#1 457459207 479678374 23189373#0 23189373#1 23189373#2 34547288#0 34547288#1 34547288#2 34547212#4 34547212#5 34547315 239339467#0 239339467#1 239339467#2"/>
    </vehicle>
    <vehicle id="9" depart="45.00">
        <route edges="35015501#0 35015501#1 35015501#2 23288767#1 23288767#2 23288767#3 1390638478 23277071#0 23277071#1 23277071#2 23277071#3 1118443339#0 1118443339#1 205519278#0 205519278#1 80653048 839269637 149899476 585918817#0 585918817#1 150018091#0 150018091#1 23220063#0 23220063#1 82544187#0 82544187#1 82544187#2 82544187#3 34547555#0 34547555#1 34547555#2 34547555#3 1118443338#0 1118443338#1 1300985702 1300985701 150018082#0 150018082#1 479678290 293300505#0 293300505#1 479678289 150018085#0 150018085#1 -448811292 448811298 1115601836 448811301#0 448811301#1 34549301#0 34549301#1 871869543 871869542 871869544 871869541 34549228 230894336#0 230894336#1 34549230#0 34549230#1 34549230#2 34549230#3 -1182280600#1 -1182280600#0"/>
    </vehicle>
    <vehicle id="10" depart="50.00">
        <route edges="34561096 23189390#3 23189390#4 23189390#5 455333853#0 455333853#1 455333853#2 455333853#3 455333853#4 23189260#0 23189260#1 32242048#1 32242048#2 32242074#0 32242074#1 1166083214#0 1166083214#1 1166083213 250220668#0 250220668#1 971628474 32942493#0 32942493#1 32942493#2 32942493#3 23185864#0 23185864#1 23185864#2 23185864#3 23185864#4 23185864#5 23185864#6 448811304#0 448811304#1 457459207 479678374 448811306#0 448811306#1 448811306#2 479678367 453604582 150018090#0 150018090#1 479678277 479678275 479678290 150018081#0 150018081#1 23296623#0 23296623#1 23296623#2 1204509157#0 1204509157#1 1204509157#2 323825891#0 323825891#1 323825891#2 323825891#3 131881833#0 131881833#1 34524142#0 34524142#1"/>
    </vehicle>
    <vehicle id="11" depart="55.00">
        <route edges="1390080632#1 1416156349 1416156350 34629816#0 34629816#1 1418288313 23277071#0 23277071#1 23277071#2 23277071#3 1118443339#0 1118443339#1 205519278#0 205519278#1 80653048 839269637 149899476 585918817#0 585918817#1 150018091#0 150018091#1 1294567928#0 1294567928#1 80655884#0 80655884#1 352056867#0 352056867#1 352056867#2 352056866#0 352056866#1 151824735#0 151824735#1 151824735#2 1394957516 151824730#0 151824730#1 151824730#2 34524142#0 34524142#1 34524142#2 34524142#3 -453786057#4 -453786057#3 -453786057#2 -453786057#1 -453786057#0"/>
    </vehicle>
    <vehicle id="12" depart="60.00">
        <route edges="808904812 726108531 -726108531 1186197506 808904813 726108541 475795730#0 475795730#1 726108530#0 726108530#1 23296586#0 23296586#1 1218387758#0 1218387758#1 453786047#0 453786047#1 453786047#2 441643374#0 441643374#1 479678157#1 151732524#0 151732524#1 151732524#2 151732524#3 1185305650#0 1185305650#1 454364247 27032657 814584377#0 814584377#1 814584377#2 814584377#3 826561109#0 826561109#1 826561109#2 1302766176#0 1302766176#1 1302766176#2 23289817#0 23289817#1 23289817#2 -23289817#2 -23289817#1 -23289817#0 1302766173#0 1302766173#1 1302766173#2 1302766173#3 1302766173#4 1302766173#5 1302766173#6 151772101#0 151772101#1 1431180275#0"/>
    </vehicle>
    <vehicle id="13" depart="65.00">
        <route edges="-292728732#3 -292728732#2 -292728732#1 -292728732#0 33831422#3 1300948066 151766115#2 809446927 281697322#0 281697322#1 281697324#0 281697324#1 894393267#0 894393267#1 34559273#0 34559273#1 1226454897 32479262 34559292#0 34559292#1 34559292#2 23189390#0 23189390#1 23189390#2 23189390#3 23189390#4 23189390#5 455333853#0 455333853#1 455333853#2 455333853#3 455333853#4 23189260#0 23189260#1 32242048#1 32242048#2 32242074#0 32242074#1 1166083214#0 1166083214#1 1166083213 250220668#0 250220668#1 971628474 32942493#0 32942493#1 32942493#2 32942493#3 -943553380#1 -943553380#0 -305892959#2"/>
    </vehicle>
    <vehicle id="14" depart="70.00">
        <route edges="448811301#0 448811301#1 448811301#2 448811301#3 448811301#4 -448811293#1 -448811293#0 33831422#0 33831422#1 33831422#2 33831422#3 33831422#4 33831422#5 1304023938 1414576511#0 1414576511#1 80655891#0 80655891#1 80655891#2 451606987 33831417#0 33831417#1 33831417#2 1272575217#0 1272575217#1 1272575218 1272575219 281681811#0 281681811#1 281681811#2 281681811#3 281681811#4 281681811#5 239881751#0 239881751#1 239881751#2 151824716#0 151824716#1 151824728#0 151824728#1 151824728#2 151824728#3 151824728#4 151824728#5 34524852#0 34524852#1 1303980968 1339584630 1339584631 1303980969 1304381643#0 1304381643#1 1304381643#2 1304381643#3 1304381643#4 1304381642 1302766172#0 1302766172#1 1302766172#2 1302766172#3 1302766172#4 1302766172#5 1302766172#6 -826561109#2 -826561109#1 -826561109#0 -814584377#3 -814584377#2 814584377#2 814584377#3 826561109#0 826561109#1 826561109#2 1302766176#0 1302766176#1 1302766176#2 23289817#0 23289817#1 23289817#2 -257707685#1 -257707685#0 257707685#0 257707685#1"/>
    </vehicle>
    <vehicle id="15" depart="75.00">
        <route edges="34561096 23189390#3 23189390#4 23189390#5 455333853#0 455333853#1 455333853#2 455333853#3 455333853#4 23189260#0 23189260#1 32242048#1 32242048#2 32242074#0 32242074#1 1166083214#0 1166083214#1 1166083213 250220668#0 250220668#1 971628474 32942493#0 32942493#1 32942493#2 32942493#3 23185864#0 23185864#1 23185864#2 23185864#3 23185864#4 23185864#5 23185864#6 448811304#0 448811304#1 457459207 479678374 448811306#0 448811306#1 448811306#2 479678367 453604582 150018090#0 150018090#1 479678277 479678275 479678290 293300505#0 293300505#1 479678289 150018085#0 150018085#1 -448811292 448811298 1115601836 448811301#0 448811301#1 34549301#0 34549301#1 871869543 871869542 871869544 34549297"/>
    </vehicle>
    <vehicle id="16" depart="80.00">
        <route edges="23289951#2 23289951#3 23289951#4 23289951#5 329319925#0 329319925#1 257707685#0 257707685#1 -23289817#2 -23289817#1 -23289817#0 -1302766176#2 -1302766176#1 -1302766176#0 -826561109#2 -826561109#1 -826561109#0 -814584377#3 -814584377#2 -814584377#1 -814584377#0 -27032657 -454364247 -1185305650#1 -1185305650#0 454364177 1391001428#0 1391001428#1 1391001428#2 409879056#0 409879056#1 151732544#0 868460445#0"/>
    </vehicle>
    <vehicle id="17" depart="85.00">
        <route edges="151732524#2 151732524#3 1185305650#0 -1185305650#0 454364177 1391001428#0 1391001428#1 1391001428#2 409879056#0 409879056#1 151732544#0 151732544#1 151732544#2 529650602#0 529650602#1 -151732528#3 -151732528#2 -151732528#1 -151732528#0 -23296607#1 -23296607#0 -453786057#4 -453786057#3 -453786057#2 -453786057#1 -453786057#0 479678295 455320420 23296608#0 23296608#1 23296608#2 23296608#3 23296608#4"/>
    </vehicle>
    <vehicle id="18" depart="90.00">
        <route edges="43469287#1 43469287#2 -1115601836 1115601836 448811301#0 448811301#1 448811301#2 448811301#3 448811301#4 -448811293#1 -448811293#0 281697324#0"/>
    </vehicle>
    <vehicle id="19" depart="95.00">
        <route edges="453786047#0 -453786047#0 -1218387758#1 -1218387758#0 -23296586#1 -23296586#0 -726108530#1 -726108530#0 726108529 1218387755 726108550 726108546 726108545 726108539#0 726108539#1 726108539#2 -814580951#8 -814580951#7 -814580951#6 -814580951#5 -814580951#4 -814580951#3 23296625#0"/>
    </vehicle>
    <vehicle id="20" depart="100.00">
        <route edges="33831425#0 33831425#1 33831425#2 935852699#0 935852699#1 33831424#0 33831424#1 33831424#2 448983377 293300506#0 293300506#1 293300507#0 23295182#0 23295182#1 23295182#2 23295182#3 23295182#4 23295182#5 281681813#2 281681812#0 281681812#1 281681812#2 281681812#3 281681812#4 451606987 39216791#0 39216791#1 39216791#2 39216791#3 39216791#4 39216791#5 39216791#6 479678291 151737991#0 151737991#1 151737991#2 453786057#0 453786057#1 453786057#2 453786057#3 453786057#4 23296607#0 23296607#1 151732528#0 151732528#1 151732528#2 151732528#3 529650601#0 529650601#1 479678155#1 479678157#0 479678157#1 479678156 151732544#0 868460445#0 868460445#1 -151732532#2"/>
    </vehicle>
    <vehicle id="21" depart="105.00">
        <route edges="1118443344#1 148678210#0 148678210#1 447576658#0 447576658#1 447576658#2 447576658#3 447576658#4 323825888#0 323825888#1 323825888#2 323825888#3 323825888#4 231109701#0 231109701#1 352056866#0 352056866#1 151824735#0 151824735#1 151824735#2 1394957516 151824730#0 151824730#1 151824730#2 132006073#0 132006073#1 132006073#2 132006073#3 132006073#4 479678295 455320420 23288757#0 23288757#1 23288757#2 23288757#3 23288757#4 23288757#5 151824728#0 151824728#1 151824728#2 151824728#3 151824728#4 151824728#5 34524852#0 34524852#1 1303980968 1339584630 1339584631 1303980969 1304381643#0 1304381643#1 1304381643#2 1304381643#3 1304381643#4 1304381642 1302766172#0 1302766172#1 1302766172#2 1302766172#3 1302766172#4 1302766172#5 1302766172#6 -826561109#2 -826561109#1 -826561109#0 -814584377#3 -814584377#2 814584377#2 814584377#3 826561109#0 826561109#1 826561109#2 1302766176#0 1302766176#1 1302766176#2 23289817#0 23289817#1 23289817#2 391998407#0 391998407#1 391998407#2 391998407#3 391998407#4 23289951#3 23289951#4 23289951#5 476023745#0 476023745#1 132648782#3 132648782#4 132648782#5 24678342#1 1340289243 1340289242#0"/>
    </vehicle>
    <vehicle id="22" depart="110.00">
        <route edges="-239339467#2 -239339467#1 -239339467#0 -34547315 23289049#0 23289049#1 23289049#2 23289049#3 448811304#0 448811304#1 457459207 479678374 448811306#0 448811306#1 448811306#2 479678367 453604582 150018090#0 150018090#1 479678277 479678275 479678290 150018081#0 150018081#1 23296623#0 23296623#1 23296623#2 1204509157#0 1204509157#1 1204509157#2 323825891#0 323825891#1 323825891#2 323825891#3 131881833#0 131881833#1 132006073#0 132006073#1 132006073#2 132006073#3 132006073#4 479678295 455320420 23288757#0 23288757#1 23288757#2 23288757#3 23288757#4 23288757#5 151824728#0 151824728#1 151824728#2 151824728#3 151824728#4 151824728#5 34524852#0 34524852#1 1303980968 1339584630 1339584631 1303980969 1304381643#0 1304381643#1 1304381643#2 1304381643#3 1304381643#4 1304381642 1302766172#0 1302766172#1 1302766172#2 1302766172#3 1302766172#4 1302766172#5 1302766172#6 1288780345#0 1288780345#1 1288780345#2 1288780345#3"/>
    </vehicle>
    <vehicle id="23" depart="115.00">
        <route edges="-305892959#2 -305892959#1 -305892959#0 32942493#2 32942493#3 23185864#0 23185864#1 23185864#2 23185864#3 23185864#4 23185864#5 23185864#6 448811304#0 448811304#1 457459207 479678374 448811306#0 448811306#1 448811306#2 479678367 453604582 150018090#0 150018090#1 479678277 479678275 479678290 150018081#0 150018081#1 23296623#0 23296623#1 23296623#2 1204509157#0 1204509157#1 1204509157#2 323825891#0 323825891#1 323825891#2 323825891#3 131881833#0 131881833#1 132006073#0 132006073#1 132006073#2 132006073#3 132006073#4 479678295 455320420 23288757#0 23288757#1 23288757#2 23288757#3 23288757#4 23288757#5 151824728#0 151824728#1 151824728#2 151824728#3 151824728#4 151824728#5 34524852#0 34524852#1 1303980968 1339584630 1339584631 1303980969 1304381643#0 1304381643#1 1304381643#2 1304381643#3 1304381643#4 1304381642 1302766172#0 1302766172#1 1302766172#2 1302766172#3 1302766172#4 1302766172#5 1302766172#6 -826561109#2 -826561109#1 -826561109#0 -814584377#3 -814584377#2 814584377#2 814584377#3 826561109#0 826561109#1 826561109#2 1302766176#0 1302766176#1 1302766176#2 23289817#0 23289817#1 23289817#2 -23289817#2 -23289817#1 -23289817#0 1302766173#0 1302766173#1 1302766173#2 1302766173#3 1302766173#4 1302766173#5 1302766173#6 151772101#0 151772101#1 1303980971 34524878#0 34524878#1 34524878#2 34524878#3 33832076#0 33832076#1 1329763138 1300992767 1329763143"/>
    </vehicle>
    <vehicle id="24" depart="120.00">
        <route edges="281697322#0 281697322#1 33831422#0 33831422#1 33831422#2 33831422#3 33831422#4 33831422#5 1304023938 1414576511#0 1414576511#1 80655891#0 80655891#1 80655891#2 451606987 39216791#0 39216791#1 39216791#2 39216791#3 39216791#4 39216791#5 39216791#6 479678291 151737991#0 151737991#1 151737991#2 453786057#0 453786057#1 453786057#2 453786057#3 453786057#4 23296607#0 23296607#1 151732528#0"/>
    </vehicle>
    <vehicle id="25" depart="125.00">
        <route edges="150018084#0 150018084#1 150018082#0 150018082#1 479678290 150018081#0 150018081#1 23296623#0 23296623#1 23296623#2 1204509157#0 1204509157#1 1204509157#2 323825891#0 323825891#1 323825891#2 323825891#3 131881833#0 131881833#1 34524142#0 34524142#1 34524142#2 34524142#3 23296535#0 23296535#1 23296535#2 703465934#0 703465934#1 703465934#2 1224648666 1224648667 726108536#0 726108536#1 726108545 726108547 726108543#0 726108543#1 726108543#2 726108532 808904812 726108531 -726108531 1186197506"/>
    </vehicle>
    <vehicle id="26" depart="130.00">
        <route edges="1288781682#0 1288781682#1 1288781682#2 1302766173#0 1302766173#1 1302766173#2 1302766173#3 1302766173#4 1302766173#5 1302766173#6 151772101#0 151772101#1 1431180275#0 1431180275#1 1431180275#2 23288960#0 23288960#1 23288960#2 23288960#3 23288960#4 23288960#5 23288960#6 23288960#7 23288960#8 151824722#0 151824722#1 151824722#2 151824722#3 151824722#4 151824722#5 151772103#0 151772103#1 151737996 479678292#0 479678292#1 479678291 23288761#0 23288761#1 23288761#2 23288761#3 23288761#4 131881840#0 131881840#1 131881840#2 23296622#0 23296622#1 1394957537#0 1394957537#1 151824711#0 151824711#1 -23296625#3 -23296625#2 -23296625#1 -23296625#0 814580951#3 814580951#4 814580951#5 814580951#6 814580951#7 814580951#8 726108540#0 726108540#1"/>
    </vehicle>
    <vehicle id="27" depart="135.00">
        <route edges="30887226#3 30887226#4 34547852#0 34547852#1 33831417#0 33831417#1 33831417#2 1272575217#0 1272575217#1 1272575218 1272575219 281681811#0"/>
    </vehicle>
    <vehicle id="28" depart="140.00">
        <route edges="-448811293#0 448811293#0 448811293#1 43469287#0 43469287#1 43469287#2 -1115601836 1115601836 448811301#0 448811301#1 34549301#0 34549301#1 871869543 871869542 871869544 34549297"/>
    </vehicle>
    <vehicle id="29" depart="145.00">
        <route edges="-409238154 -957059981 -834194030 447910979#0 447910979#1 957059983 657331018 814580955#0 814580955#1 657331021#0 657331021#1 888419746 148678219#0 148678219#1 148678219#2 151824735#1 151824735#2 1394957516 151824730#0 151824730#1 151824730#2 132006073#0 132006073#1 132006073#2 132006073#3 132006073#4 479678295 455320420 23288757#0 23288757#1 23288757#2 23288757#3 23288757#4 23288757#5 151824728#0 151824728#1 151824728#2 151824728#3 151824728#4 151824728#5 34524852#0 34524852#1 1303980968 1339584630 1339584631 1303980969 -63067956#8 -63067956#7 -63067956#6 -63067956#5 -63067956#4 23296620#0 23296620#1 151734053#0 151734053#1 151734053#2 151734053#3"/>
    </vehicle>
    <vehicle id="30" depart="150.00">
        <route edges="894394871 1429759418 894394990 23189537 450836861#0 450836861#1 23189252#0 23189252#1 23189252#2 23189252#3 26680049#0 26680049#1 26680049#2 26680049#3 31976004#0"/>
    </vehicle>
    <vehicle id="31" depart="155.00">
        <route edges="23296587#1 23296587#2 151824720#0 151824720#1 1215972436#0 1215972436#1 151824736#0 151824736#1 323224337 323225957#0 323225957#1 82544187#0 82544187#1 82544187#2 82544187#3 34547555#0 34547555#1 34547555#2 34547555#3 1118443338#0 1118443338#1 1300985702 1300985701 150018082#0 150018082#1 479678290 293300505#0 293300505#1 479678289 150018085#0 150018085#1 -448811292 448811298 1115601836 448811301#0 448811301#1 448811301#2 448811301#3 448811301#4 -448811293#1 -448811293#0 33831422#0 33831422#1"/>
    </vehicle>
    <vehicle id="32" depart="160.00">
        <route edges="448811296#0 448811296#1 448811296#2 448811298 1115601836 448811301#0 448811301#1 448811301#2 448811301#3 448811301#4 -448811293#1 -448811293#0 281697324#0 281697324#1 894393267#0 894393267#1 34559273#0 34559273#1 1226454897 32479262 34559292#0 34559292#1 34559292#2 23189390#0 23189390#1 23189390#2 23189390#3 23189390#4 23189390#5 455333853#0 455333853#1 455333853#2 455333853#3 455333853#4 23189260#0 23189260#1 32242048#1 32242048#2 32242074#0 32242074#1 1166083214#0 1166083214#1 1166083213 250220668#0 250220668#1 971628474 32942493#0 32942493#1 32942493#2 32942493#3 32497485#0 32497485#1 32497485#2 1390080632#0 1390080632#1 1416156349 1416156350 34629816#0 34629816#1"/>
    </vehicle>
    <vehicle id="33" depart="165.00">
        <route edges="1151980389 25695583 1151980384#0 1151980384#1 -1151980384#1 -1151980384#0 -25695583 -1151980389 -23184329#2 -23184329#1 -23184329#0 23277071#0 23277071#1 23277071#2 23277071#3 1118443339#0 1118443339#1 205519278#0 205519278#1 80653048 839269637 149899476 585918817#0 585918817#1 150018091#0 150018091#1 1294567928#0 1294567928#1 80655884#0 80655884#1 352056867#0 352056867#1 352056867#2 352056866#0 352056866#1 151824735#0 151824735#1 151824735#2 1394957516 151824730#0 151824730#1 151824730#2 132006073#0 132006073#1 132006073#2 132006073#3 132006073#4 479678295 479678293 151732541#0 151732541#1 1379361918 151737998 -1379361907 34547753#0 34547753#1 34547753#2 34547753#3 1379361938 34549675#0 34549675#1 -34549675#1 -34549675#0 -1379361938"/>
    </vehicle>
    <vehicle id="34" depart="170.00">
        <route edges="132648782#5 24678342#1 1340289243 1340289242#0 1340289242#1 23289951#5 329319925#0 329319925#1 257707685#0 257707685#1 -23289817#2 -23289817#1 -23289817#0 1302766173#0 1302766173#1 1302766173#2 1302766173#3 1302766173#4 1302766173#5 1302766173#6 151772101#0 151772101#1 1431180275#0 1431180275#1 1431180275#2 23288960#0 23288960#1 23288960#2 23288960#3 23288960#4 23288960#5 23288960#6 23288960#7 23288960#8 151824722#0 151824722#1 151824722#2 151824722#3 151824722#4 151824722#5 151772103#0 151772103#1 151737996 479678292#0 479678292#1 479678291 23288761#0 23288761#1 23288761#2 23288761#3 23288761#4 131881840#0"/>
    </vehicle>
    <vehicle id="35" depart="175.00">
        <route edges="-834194030 447910979#0 447910979#1 957059983 657331018 814580955#0 814580955#1 657331021#0 657331021#1 888419746 148678219#0 148678219#1 148678219#2 151824735#1 151824735#2 -23296622#1 -23296622#0 34547651#0 34547651#1 23189359#0 23189359#1 23189359#2 -23296623#2 -23296623#1 -23296623#0 150018080#0 150018080#1 479678289 150018085#0 150018085#1 -448811292 448811298 1115601836 448811301#0 448811301#1 448811301#2 448811301#3 448811301#4 -448811293#1 -448811293#0 281697324#0 281697324#1 894393267#0 894393267#1 787876222#0 787876222#1 787876222#2"/>
    </vehicle>
    <vehicle id="36" depart="180.00">
        <route edges="455333853#0 455333853#1 455333853#2 455333853#3 455333853#4 23189260#0 23189260#1 32242048#1 32242048#2 32242074#0 32242074#1 1166083214#0 1166083214#1 1166083213 250220668#0 250220668#1 971628474 32942493#0 32942493#1 32942493#2 32942493#3 23185864#0 23185864#1 23185864#2 23185864#3 23185864#4 23185864#5 23185864#6 448811304#0 448811304#1 457459207 479678374 448811306#0 448811306#1 448811306#2 479678367 453604582 150018090#0 150018090#1 479678277 479678275 479678290 293300505#0 293300505#1 479678289 150018085#0 150018085#1 -448811292 448811298 1115601836 448811301#0 448811301#1 448811301#2 448811301#3 448811301#4 -448811293#1 -448811293#0 -1376128867#1 -1376128867#0 448811302 -1376128866 448811299 1376128869#0 1376128869#1"/>
    </vehicle>
    <vehicle id="37" depart="185.00">
        <route edges="32210191#1 894394871 1429759418 894394990 23189537 450836861#0 450836861#1 450836878#0 450836878#1 450836878#2 325886647#0 325886647#1 943553380#0 943553380#1 23185864#0 23185864#1 23185864#2 23185864#3 23185864#4 23185864#5 23185864#6 448811304#0 448811304#1 457459207 479678374 448811306#0 448811306#1 448811306#2 479678367 453604582 150018090#0 150018090#1 479678277 479678275 479678290 150018081#0 150018081#1 23296623#0 23296623#1 23296623#2 1204509157#0 1204509157#1 1204509157#2 323825891#0 323825891#1 323825891#2 323825891#3 131881833#0 131881833#1 132006073#0 132006073#1 132006073#2 132006073#3 132006073#4 479678295 479678293 151732541#0 151732541#1 1379361918 151737998 -1379361907 34547753#0 34547753#1 34547753#2 34547753#3 1379361938 34549675#0 34549675#1 281681811#3 281681811#4 281681811#5 239881751#0 239881751#1 239881751#2 151824722#0 151824722#1"/>
    </vehicle>
    <vehicle id="38" depart="190.00">
        <route edges="648493813#3 648493813#4 1431180275#0 1431180275#1 1431180275#2 23288960#0 23288960#1 23288960#2 23288960#3 23288960#4 23288960#5 23288960#6 23288960#7 23288960#8 151824722#0 151824722#1 151824722#2 151824722#3 151824722#4 151824722#5 151772103#0 151772103#1 151737996 479678292#0 479678292#1 479678291 23288761#0 23288761#1 23288761#2 23288761#3 23288761#4 131881840#0 131881840#1 131881840#2 34547651#0 34547651#1 23189359#0 23189359#1 23189359#2"/>
    </vehicle>
    <vehicle id="39" depart="195.00">
        <route edges="1288781682#0 1288781682#1 1288781682#2 -1302766176#2 -1302766176#1 -1302766176#0 -826561109#2 -826561109#1 -826561109#0 -814584377#3 -814584377#2 -814584377#1 -814584377#0 -27032657 -454364247 23296590#0 23296590#1 23296590#2 63067956#0 63067956#1 63067956#2 63067956#3 23296620#0 23296620#1 151734053#0 151734053#1 151734053#2 151734053#3 151734053#4 151734053#5 1304381643#2 1304381643#3 1304381643#4 1304381642 1302766172#0 1302766172#1 1302766172#2"/>
    </vehicle>
    <vehicle id="40" depart="200.00">
        <route edges="23296603#1 23296606#0 23296606#1 453786047#1 453786047#2 441643374#0 441643374#1 479678157#1 479678156 151732544#0 868460445#0 868460445#1 -151732532#2 -151732532#1 -151732532#0 23296608#8 23296608#9 454364179#0 454364179#1 454364179#2 63067956#0 63067956#1 63067956#2 63067956#3 63067956#4 63067956#5 63067956#6 63067956#7 63067956#8 1304381643#0"/>
    </vehicle>
    <vehicle id="41" depart="205.00">
        <route edges="23296619#3 1183895801#0 1183895801#1 -454364247 23296590#0 23296590#1 23296590#2 63067956#0 63067956#1"/>
    </vehicle>
    <vehicle id="42" depart="210.00">
        <route edges="151766115#0 151766115#1 151766115#2 34549307#0 34549307#1 34549307#2 33831422#2 33831422#3 33831422#4 33831422#5 1304023938 1414576511#0 1414576511#1 80655891#0 80655891#1 80655891#2 451606987 33831417#0 33831417#1 33831417#2 1272575217#0 1272575217#1 1272575218 1272575219 281681811#0 281681811#1 281681811#2 281681811#3 281681811#4 281681811#5 239881751#0 239881751#1 239881751#2 151824716#0 151824716#1 151824728#0 151824728#1 151824728#2 151824728#3 151824728#4 151824728#5 34524852#0 34524852#1 1303980968 1339584630 1339584631 1303980969 1304381643#0 1304381643#1 1304381643#2 1304381643#3 1304381643#4 1304381642 1302766172#0 1302766172#1 1302766172#2 1302766172#3 1302766172#4 1302766172#5 1302766172#6 -826561109#2 -826561109#1 -826561109#0 -814584377#3 -814584377#2 1221422353#0 1221422353#1"/>
    </vehicle>
    <vehicle id="43" depart="215.00">
        <route edges="945871380#2 945871380#3 34547192#0 34547192#1 34547192#2 34547467#0 34547467#1 447576658#0 447576658#1 447576658#2 447576658#3 447576658#4 323825888#0 323825888#1 323825888#2 323825888#3 323825888#4 231109701#0 231109701#1 352056866#0 352056866#1 151824735#0 151824735#1 151824735#2 1394957516 151824730#0 151824730#1 151824730#2 132006073#0 132006073#1 132006073#2 132006073#3 132006073#4 479678295 455320420 23288757#0 23288757#1 23288757#2 23288757#3 23288757#4 23288757#5 151824728#0 151824728#1 151824728#2 151824728#3 151824728#4 151824728#5 34524852#0 34524852#1 1303980968 1339584630 1339584631 1303980969 1304381643#0 1304381643#1 1304381643#2 1304381643#3 1304381643#4 1304381642 1302766172#0 1302766172#1 1302766172#2 1302766172#3 1302766172#4 1302766172#5 1302766172#6 -826561109#2 -826561109#1 -826561109#0 -814584377#3 -814584377#2 814584377#2 814584377#3 826561109#0 826561109#1 826561109#2 1302766176#0 1302766176#1 1302766176#2 23289817#0 23289817#1 23289817#2 -23289817#2 -23289817#1 -23289817#0 1302766173#0 1302766173#1 1302766173#2 1302766173#3 1302766173#4 1302766173#5 1302766173#6 151772101#0 151772101#1 1431180275#0 1431180275#1 1431180275#2 23288960#0 23288960#1"/>
    </vehicle>
    <vehicle id="44" depart="220.00">
        <route edges="-292728732#1 -292728732#0 33831422#3 33831422#4 33831422#5 1304023938 1414576511#0 1414576511#1 80655891#0 80655891#1 80655891#2 451606987 39216791#0 39216791#1 39216791#2 39216791#3 39216791#4 39216791#5 39216791#6 479678291 23288761#0 23288761#1 23288761#2 23288761#3 23288761#4 131881840#0 131881840#1 131881840#2 23296622#0 23296622#1 1394957537#0 1394957537#1 151824711#0 151824711#1 -151824711#1 -151824711#0"/>
    </vehicle>