<additional>

    <!-- Piazza 8 Agosto -->
    <poi id="piazza_8_agosto" x="11.34527686440958" y="44.50027943650601" color="1,0,0" layer="3" type="wifi_ap" name="Piazza 8 Agosto"/>
    <poly id="poly_piazza_8_agosto" color="1,0,0,0.25" fill="true" layer="2"
          shape="11.346327,44.500279 11.346101,44.500945 11.345539,44.501484 11.344780,44.501715 11.344020,44.501484 11.343459,44.500945 11.343233,44.500279 11.343459,44.499613 11.344020,44.499074 11.344780,44.498843 11.345539,44.499074 11.346101,44.499613"/>

    <!-- Parco 11 Settembre -->
    <poi id="parco_11_settembre" x="11.33658934486044" y="44.50012185840865" color="0,0,1" layer="3" type="wifi_ap" name="Parco 11 Settembre 2001"/>
    <poly id="poly_parco_11_settembre" color="0,0,1,0.25" fill="true" layer="2"
          shape="11.337639,44.500122 11.337413,44.500788 11.336852,44.501327 11.336092,44.501558 11.335333,44.501327 11.334771,44.500788 11.334546,44.500122 11.334771,44.499456 11.335333,44.498917 11.336092,44.498686 11.336852,44.498917 11.337413,44.499456"/>

    <!-- Piazza Pasolini / Lumiere -->
    <poi id="piazza_pasolini_lumiere" x="11.334766886590288" y="44.502403722367106" color="1,0.5,0" layer="3" type="wifi_ap" name="Piazza Pasolini / Lumiere"/>
    <poly id="poly_piazza_pasolini_lumiere" color="1,0.5,0,0.25" fill="true" layer="2"
          shape="11.335817,44.502404 11.335591,44.503070 11.335030,44.503609 11.334270,44.503840 11.333511,44.503609 11.332949,44.503070 11.332724,44.502404 11.332949,44.501738 11.333511,44.501199 11.334270,44.500968 11.335030,44.501199 11.335591,44.501738"/>

    <!-- Velostazione -->
    <poi id="velostazione" x="11.345568423884524" y="44.50352386626166" color="0,1,0" layer="3" type="wifi_ap" name="Velostazione"/>
    <poly id="poly_velostazione" color="0,1,0,0.25" fill="true" layer="2"
          shape="11.346618,44.503524 11.346392,44.504190 11.345831,44.504729 11.345071,44.504960 11.344312,44.504729 11.343750,44.504190 11.343525,44.503524 11.343750,44.502858 11.344312,44.502319 11.345071,44.502088 11.345831,44.502319 11.346392,44.502858"/>

    <!-- Autostazione -->
    <poi id="autostazione" x="11.346413471395405" y="44.50412233071955" color="0,1,1" layer="3" type="wifi_ap" name="Autostazione"/>
    <poly id="poly_autostazione" color="0,1,1,0.25" fill="true" layer="2"
          shape="11.347464,44.504122 11.347238,44.504788 11.346676,44.505327 11.345917,44.505558 11.345157,44.505327 11.344596,44.504788 11.344370,44.504122 11.344596,44.503456 11.345157,44.502917 11.345917,44.502686 11.346676,44.502917 11.347238,44.503456"/>

    <!-- Cineteca -->
    <poi id="cineteca" x="11.336904443406464" y="44.49891741678237" color="1,0,1" layer="3" type="wifi_ap" name="Cineteca"/>
    <poly id="poly_cineteca" color="1,0,1,0.25" fill="true" layer="2"
          shape="11.337954,44.498917 11.337728,44.499583 11.337167,44.500122 11.336407,44.500353 11.335648,44.500122 11.335086,44.499583 11.334861,44.498917 11.335086,44.498251 11.335648,44.497712 11.336407,44.497481 11.337167,44.497712 11.337728,44.498251"/>

    <!-- DumBO -->
    <poi id="dumbo" x="11.325935453367027" y="44.50535134807505" color="1,1,0" layer="3" type="wifi_ap" name="Dumbo"/>
    <poly id="poly_dumbo" color="1,1,0,0.25" fill="true" layer="2"
          shape="11.326985,44.505351 11.326759,44.506017 11.326198,44.506556 11.325438,44.506787 11.324679,44.506556 11.324117,44.506017 11.323892,44.505351 11.324117,44.504685 11.324679,44.504146 11.325438,44.503915 11.326198,44.504146 11.326759,44.504685"/>

    <!-- Mambo -->
    <poi id="mambo" x="11.33683360818396" y="44.50257695055724" color="0.5,0,1" layer="3" type="wifi_ap" name="Mambo"/>
    <poly id="poly_mambo" color="0.5,0,1,0.25" fill="true" layer="2"
          shape="11.337884,44.502577 11.337658,44.503243 11.337097,44.503782 11.336337,44.504013 11.335578,44.503782 11.335016,44.503243 11.334791,44.502577 11.335016,44.501911 11.335578,44.501372 11.336337,44.501141 11.337097,44.501372 11.337658,44.501911"/>

    <!-- Parco del Cavaticcio -->
    <poi id="parco_cavaticcio" x="11.335924318560533" y="44.50261558056925" color="0.5,1,0" layer="3" type="wifi_ap" name="Parco del Cavaticcio"/>
    <poly id="poly_parco_cavaticcio" color="0.5,1,0,0.25" fill="true" layer="2"
          shape="11.336974,44.502616 11.336748,44.503282 11.336187,44.503821 11.335427,44.504052 11.334668,44.503821 11.334106,44.503282 11.333881,44.502616 11.334106,44.501950 11.334668,44.501411 11.335427,44.501180 11.336187,44.501411 11.336748,44.501950"/>

    <!-- Stazione / Piazza Medaglie D’Oro -->
    <poi id="stazione_piazza_med_oro" x="11.343236115621353" y="44.50522439397164" color="1,0,0.5" layer="3" type="wifi_ap" name="Stazione / Piazza Medaglie D'Oro"/>
    <poly id="poly_stazione_piazza_med_oro" color="1,0,0.5,0.25" fill="true" layer="2"
          shape="11.344286,44.505224 11.344060,44.505890 11.343499,44.506429 11.342739,44.506660 11.341980,44.506429 11.341418,44.505890 11.341193,44.505224 11.341418,44.504558 11.341980,44.504019 11.342739,44.503788 11.343499,44.504019 11.344060,44.504558"/>

    <!-- Quartiere Porto / Biblioteca Borges -->
    <poi id="quartiere_porto_bibl_borges" x="11.329093689479468" y="44.50224882527717" color="0,0.7,1" layer="3" type="wifi_ap" name="Quartiere Porto / Biblioteca Borges"/>
    <poly id="poly_quartiere_porto_bibl_borges" color="0,0.7,1,0.25" fill="true" layer="2"
          shape="11.330144,44.502249 11.329918,44.502915 11.329356,44.503454 11.328597,44.503685 11.327837,44.503454 11.327276,44.502915 11.327050,44.502249 11.327276,44.501583 11.327837,44.501044 11.328597,44.500813 11.329356,44.501044 11.329918,44.501583"/>

</additional>
