<?xml version="1.0" encoding="UTF-8"?>

<!-- generated on 2025-10-16 16:09:13.876725 by randomTrips.py UNKNOWN
<configuration>
    <net-file value="mappa.net.xml"/>
    <route-file value="mappa_without_sos.rou.xml"/>
    <fringe-factor value="10"/>
    <end value="1000.0"/>
    <period value="5.0"/>
</configuration>
-->

<routes xmlns:xsi="http://www.w3.org/2001/XMLSchema-instance" xsi:noNamespaceSchemaLocation="http://sumo.dlr.de/xsd/routes_file.xsd">
    <trip id="0" depart="0.00" from="281699203#1" to="-1379361907"/>
    <trip id="1" depart="5.00" from="1300985702" to="1222058914"/>
    <trip id="2" depart="10.00" from="34547212#0" to="33831415"/>
    <trip id="3" depart="15.00" from="529650602#0" to="-257707685#0"/>
    <trip id="4" depart="20.00" from="151824729#2" to="-1379361938"/>
    <trip id="5" depart="25.00" from="-894393267#0" to="23288957#4"/>
    <trip id="6" depart="30.00" from="-1300985701" to="1151980384#1"/>
    <trip id="7" depart="35.00" from="30887232#1" to="23296603#0"/>
    <trip id="8" depart="40.00" from="-943553380#0" to="239339467#2"/>
    <trip id="9" depart="45.00" from="35015501#0" to="-1182280600#0"/>
    <trip id="10" depart="50.00" from="34561096" to="34524142#1"/>
    <trip id="11" depart="55.00" from="1390080632#1" to="-453786057#0"/>
    <trip id="12" depart="60.00" from="808904812" to="1431180275#0"/>
    <trip id="13" depart="65.00" from="-292728732#3" to="-305892959#2"/>
    <trip id="14" depart="70.00" from="448811301#0" to="257707685#1"/>
    <trip id="15" depart="75.00" from="34561096" to="34549297"/>
    <trip id="16" depart="80.00" from="23289951#2" to="868460445#0"/>
    <trip id="17" depart="85.00" from="151732524#2" to="23296608#4"/>
    <trip id="18" depart="90.00" from="43469287#1" to="281697324#0"/>
    <trip id="19" depart="95.00" from="453786047#0" to="23296625#0"/>
    <trip id="20" depart="100.00" from="33831425#0" to="-151732532#2"/>
    <trip id="21" depart="105.00" from="1118443344#1" to="1340289242#0"/>
    <trip id="22" depart="110.00" from="-239339467#2" to="1288780345#3"/>
    <trip id="23" depart="115.00" from="-305892959#2" to="1329763143"/>
    <trip id="24" depart="120.00" from="281697322#0" to="151732528#0"/>
    <trip id="25" depart="125.00" from="150018084#0" to="1186197506"/>
    <trip id="26" depart="130.00" from="1288781682#0" to="726108540#1"/>
    <trip id="27" depart="135.00" from="30887226#3" to="281681811#0"/>
    <trip id="28" depart="140.00" from="-448811293#0" to="34549297"/>
    <trip id="29" depart="145.00" from="-409238154" to="151734053#3"/>
    <trip id="30" depart="150.00" from="894394871" to="31976004#0"/>
    <trip id="31" depart="155.00" from="23296587#1" to="33831422#1"/>
    <trip id="32" depart="160.00" from="448811296#0" to="34629816#1"/>
    <trip id="33" depart="165.00" from="1151980389" to="-1379361938"/>
    <trip id="34" depart="170.00" from="132648782#5" to="131881840#0"/>
    <trip id="35" depart="175.00" from="-834194030" to="787876222#2"/>
    <trip id="36" depart="180.00" from="455333853#0" to="1376128869#1"/>
    <trip id="37" depart="185.00" from="32210191#1" to="151824722#1"/>
    <trip id="38" depart="190.00" from="648493813#3" to="23189359#2"/>
    <trip id="39" depart="195.00" from="1288781682#0" to="1302766172#2"/>
    <trip id="40" depart="200.00" from="23296603#1" to="1304381643#0"/>
    <trip id="41" depart="205.00" from="23296619#3" to="63067956#1"/>
    <trip id="42" depart="210.00" from="151766115#0" to="1221422353#1"/>
    <trip id="43" depart="215.00" from="945871380#2" to="23288960#1"/>
    <trip id="44" depart="220.00" from="-292728732#1" to="-151824711#0"/>
    <trip id="45" depart="225.00" from="-32479262" to="292728732#3"/>
    <trip id="46" depart="230.00" from="34558714#0" to="230894399#1"/>
    <trip id="47" depart="235.00" from="-23296535#0" to="151737996"/>
    <trip id="48" depart="240.00" from="945871380#0" to="23295215#2"/>
    <trip id="49" depart="245.00" from="82544187#2" to="455333853#0"/>
    <trip id="50" depart="250.00" from="-1185305650#0" to="34547753#1"/>
    <trip id="51" depart="255.00" from="32497485#1" to="23295321#2"/>
    <trip id="52" depart="260.00" from="1288781682#0" to="31976004#2"/>
    <trip id="53" depart="265.00" from="-32479262" to="23184327#5"/>
    <trip id="54" depart="270.00" from="23184329#2" to="809446927"/>
    <trip id="55" depart="275.00" from="455333853#0" to="1304381643#1"/>
    <trip id="56" depart="280.00" from="648493813#0" to="455333853#5"/>
    <trip id="57" depart="285.00" from="131881833#0" to="30959423#1"/>
    <trip id="58" depart="290.00" from="239881751#1" to="-451606987"/>
    <trip id="59" depart="295.00" from="34549307#0" to="23296586#0"/>
    <trip id="60" depart="300.00" from="34550130#0" to="23295287#1"/>
    <trip id="61" depart="305.00" from="-1115601836" to="1394957517#0"/>
    <trip id="62" depart="310.00" from="-1221422353#1" to="726108531"/>
    <trip id="63" depart="315.00" from="455333853#4" to="448811298"/>
    <trip id="64" depart="320.00" from="132648782#0" to="-215340952#3"/>
    <trip id="65" depart="325.00" from="455333853#3" to="80655883#0"/>
    <trip id="66" depart="330.00" from="-25695583" to="23276040#4"/>
    <trip id="67" depart="335.00" from="34549328#0" to="-34549675#1"/>
    <trip id="68" depart="340.00" from="23189364#5" to="23296608#0"/>
    <trip id="69" depart="345.00" from="1288781682#0" to="455336990#2"/>
    <trip id="70" depart="350.00" from="151824730#1" to="1215972436#0"/>
    <trip id="71" depart="355.00" from="23295182#0" to="34549301#0"/>
    <trip id="72" depart="360.00" from="-814580951#2" to="1376128869#1"/>
    <trip id="73" depart="365.00" from="943553384" to="32242048#1"/>
    <trip id="74" depart="370.00" from="215340952#0" to="23289817#0"/>
    <trip id="75" depart="375.00" from="-34547555#1" to="1222058917#0"/>
    <trip id="76" depart="380.00" from="1379361919" to="239339467#2"/>
    <trip id="77" depart="385.00" from="1166083213" to="1221422353#1"/>
    <trip id="78" depart="390.00" from="-23296622#1" to="305892959#0"/>
    <trip id="79" depart="395.00" from="450836902#2" to="-23296607#0"/>
    <trip id="80" depart="400.00" from="1182280600#0" to="325886647#0"/>
    <trip id="81" depart="405.00" from="-893946835" to="-34550053#1"/>
    <trip id="82" depart="410.00" from="782187382#2" to="23296620#4"/>
    <trip id="83" depart="415.00" from="23189364#2" to="37931739#1"/>
    <trip id="84" depart="420.00" from="34561096" to="1118443340"/>
    <trip id="85" depart="425.00" from="-292728732#3" to="23184327#0"/>
    <trip id="86" depart="430.00" from="151824730#2" to="23189390#0"/>
    <trip id="87" depart="435.00" from="34524142#3" to="32942493#2"/>
    <trip id="88" depart="440.00" from="871869544" to="-30887226#0"/>
    <trip id="89" depart="445.00" from="453786047#0" to="1302766172#6"/>
    <trip id="90" depart="450.00" from="-703465934#1" to="23189252#1"/>
    <trip id="91" depart="455.00" from="151824729#2" to="1329763143"/>
    <trip id="92" depart="460.00" from="1215972436#1" to="726108531"/>
    <trip id="93" depart="465.00" from="215340952#2" to="455333853#1"/>
    <trip id="94" depart="470.00" from="23295287#7" to="-215340952#0"/>
    <trip id="95" depart="475.00" from="957059981" to="448811301#4"/>
    <trip id="96" depart="480.00" from="819453963" to="726108531"/>
    <trip id="97" depart="485.00" from="448811301#2" to="-63067956#6"/>
    <trip id="98" depart="490.00" from="23218811#1" to="1218387758#0"/>
    <trip id="99" depart="495.00" from="151732524#2" to="893946835"/>
    <trip id="100" depart="500.00" from="1288781682#0" to="37931739#0"/>
    <trip id="101" depart="505.00" from="23185864#0" to="230894399#1"/>
    <trip id="102" depart="510.00" from="808904812" to="943553384"/>
    <trip id="103" depart="515.00" from="23296586#1" to="34547651#0"/>
    <trip id="104" depart="520.00" from="-38591444#0" to="1370904449#1"/>
    <trip id="105" depart="525.00" from="819453963" to="23296625#3"/>
    <trip id="106" depart="530.00" from="23295182#5" to="34549991#1"/>
    <trip id="107" depart="535.00" from="-23289817#0" to="239339467#2"/>
    <trip id="108" depart="540.00" from="23277071#3" to="454364177"/>
    <trip id="109" depart="545.00" from="-38591444#2" to="814584377#0"/>
    <trip id="110" depart="550.00" from="-239339467#2" to="-943553384"/>
    <trip id="111" depart="555.00" from="23296625#1" to="334254723#1"/>
    <trip id="112" depart="560.00" from="1182280600#0" to="-34547288#0"/>
    <trip id="113" depart="565.00" from="479862217#1" to="1302766172#2"/>
    <trip id="114" depart="570.00" from="23296625#0" to="281699203#0"/>
    <trip id="115" depart="575.00" from="151824728#4" to="239339467#2"/>
    <trip id="116" depart="580.00" from="-814580951#6" to="34547555#2"/>
    <trip id="117" depart="585.00" from="1182280600#0" to="151824722#1"/>
    <trip id="118" depart="590.00" from="323225957#1" to="1370904449#1"/>
    <trip id="119" depart="595.00" from="1329763138" to="34550053#2"/>
    <trip id="120" depart="600.00" from="-23296623#1" to="23189359#2"/>
    <trip id="121" depart="605.00" from="945871380#3" to="945871380#0"/>
    <trip id="122" depart="610.00" from="-23296623#2" to="1218387755"/>
    <trip id="123" depart="615.00" from="1288781682#0" to="726108538#1"/>
    <trip id="124" depart="620.00" from="455336990#2" to="476023745#4"/>
    <trip id="125" depart="625.00" from="150018082#1" to="-453786057#4"/>
    <trip id="126" depart="630.00" from="43469291#2" to="34524878#3"/>
    <trip id="127" depart="635.00" from="24678342#0" to="894392441#0"/>
    <trip id="128" depart="640.00" from="31976004#2" to="-1182280600#0"/>
    <trip id="129" depart="645.00" from="37931739#0" to="1370904449#1"/>
    <trip id="130" depart="650.00" from="32242048#1" to="782187382#3"/>
    <trip id="131" depart="655.00" from="-34549675#2" to="-34547288#0"/>
    <trip id="132" depart="660.00" from="-32479262" to="23296608#5"/>
    <trip id="133" depart="665.00" from="1294567928#0" to="26680049#1"/>
    <trip id="134" depart="670.00" from="33832067#3" to="1183895799#0"/>
    <trip id="135" depart="675.00" from="281681812#4" to="1304381643#2"/>
    <trip id="136" depart="680.00" from="448811298" to="-281697324#0"/>
    <trip id="137" depart="685.00" from="151824730#2" to="1329763138"/>
    <trip id="138" depart="690.00" from="-1151980384#1" to="34559292#3"/>
    <trip id="139" depart="695.00" from="281697324#0" to="1304381642"/>
    <trip id="140" depart="700.00" from="34547288#1" to="23296608#3"/>
    <trip id="141" depart="705.00" from="172228819" to="-1182280600#0"/>
    <trip id="142" depart="710.00" from="-23296625#2" to="476023745#4"/>
    <trip id="143" depart="715.00" from="63067956#6" to="23296603#1"/>
    <trip id="144" depart="720.00" from="441643374#0" to="239339467#0"/>
    <trip id="145" depart="725.00" from="-37931739#1" to="-34549675#0"/>
    <trip id="146" depart="730.00" from="132648782#0" to="63067956#3"/>
    <trip id="147" depart="735.00" from="34558714#0" to="455333853#0"/>
    <trip id="148" depart="740.00" from="62711618#3" to="1204509157#0"/>
    <trip id="149" depart="745.00" from="1215972436#1" to="-30887226#0"/>
    <trip id="150" depart="750.00" from="34550130#0" to="476023745#4"/>
    <trip id="151" depart="755.00" from="151824711#0" to="292728732#0"/>
    <trip id="152" depart="760.00" from="-38591444#0" to="726108531"/>
    <trip id="153" depart="765.00" from="453786057#1" to="871869541"/>
    <trip id="154" depart="770.00" from="35015501#2" to="476023745#4"/>
    <trip id="155" depart="775.00" from="-1224648667" to="34549315#2"/>
    <trip id="156" depart="780.00" from="1376128867#1" to="726108536#0"/>
    <trip id="157" depart="785.00" from="34561096" to="455333853#5"/>
    <trip id="158" depart="790.00" from="35015501#2" to="131881833#1"/>
    <trip id="159" depart="795.00" from="34550159#0" to="-323825891#2"/>
    <trip id="160" depart="800.00" from="454364181#2" to="454364181#5"/>
    <trip id="161" depart="805.00" from="-957059981" to="43469287#1"/>
    <trip id="162" depart="810.00" from="23189252#1" to="1376128867#0"/>
    <trip id="163" depart="815.00" from="34558714#0" to="1226454897"/>
    <trip id="164" depart="820.00" from="-1221422353#1" to="1151980384#1"/>
    <trip id="165" depart="825.00" from="1376128865#0" to="455333853#5"/>
    <trip id="166" depart="830.00" from="814584377#1" to="1329763143"/>
    <trip id="167" depart="835.00" from="292728732#2" to="151824728#1"/>
    <trip id="168" depart="840.00" from="868460446#1" to="23295321#1"/>
    <trip id="169" depart="845.00" from="787876222#0" to="-34547288#0"/>
    <trip id="170" depart="850.00" from="82544187#1" to="-814584377#1"/>
    <trip id="171" depart="855.00" from="814580951#4" to="1304381643#4"/>
    <trip id="172" depart="860.00" from="-32479262" to="23184327#5"/>
    <trip id="173" depart="865.00" from="34524142#2" to="1376128869#1"/>
    <trip id="174" depart="870.00" from="23692326#2" to="23288960#3"/>
    <trip id="175" depart="875.00" from="151732532#1" to="23296623#2"/>
    <trip id="176" depart="880.00" from="1222058915" to="34547212#3"/>
    <trip id="177" depart="885.00" from="-1118443338#1" to="726108531"/>
    <trip id="178" depart="890.00" from="23289951#5" to="34547651#1"/>
    <trip id="179" depart="895.00" from="34547288#2" to="329319925#0"/>
    <trip id="180" depart="900.00" from="148678219#1" to="-23296586#0"/>
    <trip id="181" depart="905.00" from="32242048#2" to="1414576510#4"/>
    <trip id="182" depart="910.00" from="132648782#3" to="453786047#1"/>
    <trip id="183" depart="915.00" from="34524058#0" to="1370904449#1"/>
    <trip id="184" depart="920.00" from="132648782#0" to="151824735#2"/>
    <trip id="185" depart="925.00" from="151772101#1" to="1370904449#1"/>
    <trip id="186" depart="930.00" from="-34549315#2" to="230894336#0"/>
    <trip id="187" depart="935.00" from="787876222#2" to="33831417#0"/>
    <trip id="188" depart="940.00" from="63067956#4" to="281681812#4"/>
    <trip id="189" depart="945.00" from="131881840#1" to="23296607#0"/>
    <trip id="190" depart="950.00" from="32210191#0" to="23189373#2"/>
    <trip id="191" depart="955.00" from="215340952#0" to="1218387758#0"/>
    <trip id="192" depart="960.00" from="23189364#2" to="63067956#6"/>
    <trip id="193" depart="965.00" from="34558714#0" to="-703465934#2"/>
    <trip id="194" depart="970.00" from="-239339467#2" to="23289049#0"/>
    <trip id="195" depart="975.00" from="281681812#2" to="1418288313"/>
    <trip id="196" depart="980.00" from="38591444#1" to="34550053#1"/>
    <trip id="197" depart="985.00" from="323825888#1" to="1222058917#0"/>
    <trip id="198" depart="990.00" from="-726108531" to="-1376128867#1"/>
    <trip id="199" depart="995.00" from="1185305650#0" to="23275450#1"/>
</routes>
